&HEAD CHID='cube'/
&TIME T_END=5.0/

&MESH ID='DFS 网格#1-1', IJK=100,100,125, XB=0.0,4.0, 0.0,4.0, 0.0,4.0 /

&SPEC ID='REAC_FUEL',FORMULA='C1.0H1.8O0.17N0.17'/
&SPEC ID='SOOT'/

&REAC ID='松木燃烧',
      FUEL='REAC_FUEL',
      HEAT_OF_COMBUSTION=20000.0,
      RADIATIVE_FRACTION=0.298,
      CO_YIELD=0.02,
      SOOT_YIELD=0.05,
      HCN_YIELD=0.001/

&DEVC ID='temperature', QUANTITY='TEMPERATURE', XYZ=3.9,0.9,3.2/

&MATL ID='黄松木',
      SPECIFIC_HEAT=2.85,
      CONDUCTIVITY=0.14,
      DENSITY=640.0,
      HEAT_OF_COMBUSTION=1.64E+4,
      N_REACTIONS=1,
      HEAT_OF_REACTION=254.0,
      SPEC_ID(1,1)='REAC_FUEL',
      SPEC_ID(2,1)='SOOT',
      NU_SPEC(1,1)=0.88,
      NU_SPEC(2,1)=0.12,
      REFERENCE_TEMPERATURE=300.0,
      PYROLYSIS_RANGE=50.0/

&SURF ID='黄松木 0.04',
      RGB=250,228,147,
      MATL_ID(1,1)='黄松木',
      MATL_MASS_FRACTION(1,1)=1.0,
      THICKNESS(1)=0.04/

&SURF ID='燃烧面',
      COLOR='RED',
      HRRPUA=1000.0,
      TMP_FRONT=600.0/

&OBST ID='Obstruction', XB=0.0,4.0,3.9,4.0,0.0,4.0/
&OBST ID='Obstruction', XB=3.9,4.0,0.1,3.9,0.0,4.0/
&OBST ID='Obstruction', XB=0.0,4.0,0.0,0.1,0.0,4.0/
&OBST ID='Obstruction', XB=3.0,3.9,2.8,3.0,0.0,0.8, SURF_ID='黄松木 0.04'/
&OBST ID='Obstruction', XB=3.0,3.9,1.1,1.3,0.0,0.8, SURF_ID6='黄松木 0.04','黄松木 0.04','黄松木 0.04','黄松木 0.04','黄松木 0.04','燃烧面'/
&OBST ID='Obstruction', XB=3.7,3.9,1.3,2.8,0.0,1.2, SURF_ID='黄松木 0.04'/
&OBST ID='Obstruction', XB=3.0,3.7,1.3,2.8,0.0,0.6, SURF_ID='黄松木 0.04'/



&ISOF QUANTITY='HRRPUV', VALUE=200.0/

